UDP-C-GlcNAc
     RDKit          3D

 66 68  0  0  1  0  0  0  0  0999 V2000
   27.7341   30.1123   40.8622 P   0  0  1  0  0  0  0  0  0  0  0  0
   28.2631   33.2988   41.0521 P   0  0  2  0  0  0  0  0  0  0  0  0
   28.6839   33.2633   37.1626 O   0  0  0  0  0  0  0  0  0  0  0  0
   28.1867   28.2815   38.2959 O   0  0  0  0  0  0  0  0  0  0  0  0
   28.8859   30.3880   39.4268 C   0  0  0  0  0  0  0  0  0  0  0  0
   29.7120   29.8363   34.8635 O   0  0  0  0  0  0  0  0  0  0  0  0
   30.3704   35.6477   36.2384 O   0  0  0  0  0  0  0  0  0  0  0  0
   27.1256   29.2545   34.9628 O   0  0  0  0  0  0  0  0  0  0  0  0
   28.6037   35.4606   34.4220 O   0  0  0  0  0  0  0  0  0  0  0  0
   27.4233   33.6510   39.6228 O   0  0  0  0  0  0  0  0  0  0  0  0
   25.1009   28.3300   38.5405 O   0  0  0  0  0  0  0  0  0  0  0  0
   27.7856   31.7052   41.5362 O   0  0  0  0  0  0  0  0  0  0  0  0
   26.3909   29.7879   40.2964 O   0  0  0  0  0  0  0  0  0  0  0  0
   28.3623   29.1296   41.7858 O   0  0  0  0  0  0  0  0  0  0  0  0
   26.6473   33.5249   33.5573 O   0  0  0  0  0  0  0  0  0  0  0  0
   27.7704   34.3052   42.0287 O   0  0  0  0  0  0  0  0  0  0  0  0
   32.1306   30.8178   35.7255 O   0  0  0  0  0  0  0  0  0  0  0  0
   29.7057   33.3502   40.6952 O   0  0  0  0  0  0  0  0  0  0  0  0
   23.0913   31.2732   35.2383 O   0  0  0  0  0  0  0  0  0  0  0  0
   26.7639   32.9486   35.7917 N   0  0  0  0  0  0  0  0  0  0  0  0
   30.8425   30.7220   37.5667 N   0  0  0  0  0  0  0  0  0  0  0  0
   24.8864   32.3894   34.4336 N   0  0  0  0  0  0  0  0  0  0  0  0
   30.0416   29.5313   37.2839 C   0  0  2  0  0  0  0  0  0  0  0  0
   29.0577   29.8429   36.1278 C   0  0  2  0  0  0  0  0  0  0  0  0
   29.0746   35.5427   36.8048 C   0  0  1  0  0  0  0  0  0  0  0  0
   27.9126   28.8288   36.0565 C   0  0  1  0  0  0  0  0  0  0  0  0
   28.1397   35.0537   35.7085 C   0  0  2  0  0  0  0  0  0  0  0  0
   28.9493   34.4657   37.8899 C   0  0  1  0  0  0  0  0  0  0  0  0
   28.1569   33.5233   35.9020 C   0  0  1  0  0  0  0  0  0  0  0  0
   27.2024   28.8131   37.4179 C   0  0  1  0  0  0  0  0  0  0  0  0
   29.2802   29.1489   38.5932 C   0  0  2  0  0  0  0  0  0  0  0  0
   27.7640   34.7650   38.8337 C   0  0  0  0  0  0  0  0  0  0  0  0
   25.9713   27.9007   37.5076 C   0  0  0  0  0  0  0  0  0  0  0  0
   26.1354   32.9832   34.5370 C   0  0  0  0  0  0  0  0  0  0  0  0
   26.1320   32.2986   36.8491 C   0  0  0  0  0  0  0  0  0  0  0  0
   31.7810   31.2867   36.8090 C   0  0  0  0  0  0  0  0  0  0  0  0
   24.9184   31.7090   36.7341 C   0  0  0  0  0  0  0  0  0  0  0  0
   32.3924   32.5824   37.3206 C   0  0  0  0  0  0  0  0  0  0  0  0
   24.2077   31.7396   35.4617 C   0  0  0  0  0  0  0  0  0  0  0  0
   30.5897   30.1896   35.0264 H   0  0  0  0  0  0  0  0  0  0  0  0
   30.1805   35.7318   35.3064 H   0  0  0  0  0  0  0  0  0  0  0  0
   27.7822   29.6110   34.3719 H   0  0  0  0  0  0  0  0  0  0  0  0
   28.0571   34.9820   33.8034 H   0  0  0  0  0  0  0  0  0  0  0  0
   25.6254   28.8086   39.2228 H   0  0  0  0  0  0  0  0  0  0  0  0
   30.5646   31.2078   38.4154 H   0  0  0  0  0  0  0  0  0  0  0  0
   24.4337   32.3960   33.5379 H   0  0  0  0  0  0  0  0  0  0  0  0
   30.6851   28.6966   37.0023 H   0  0  0  0  0  0  0  0  0  0  0  0
   28.6294   30.8285   36.2999 H   0  0  0  0  0  0  0  0  0  0  0  0
   28.7865   36.5279   37.1736 H   0  0  0  0  0  0  0  0  0  0  0  0
   28.3025   27.8342   35.8347 H   0  0  0  0  0  0  0  0  0  0  0  0
   27.1305   35.4257   35.8936 H   0  0  0  0  0  0  0  0  0  0  0  0
   29.8760   34.3688   38.4533 H   0  0  0  0  0  0  0  0  0  0  0  0
   28.7574   32.9862   35.1643 H   0  0  0  0  0  0  0  0  0  0  0  0
   26.9108   29.8232   37.6958 H   0  0  0  0  0  0  0  0  0  0  0  0
   29.9519   28.5630   39.2216 H   0  0  0  0  0  0  0  0  0  0  0  0
   28.0122   35.5964   39.4958 H   0  0  0  0  0  0  0  0  0  0  0  0
   26.8716   35.0508   38.2806 H   0  0  0  0  0  0  0  0  0  0  0  0
   25.4078   27.9351   36.5753 H   0  0  0  0  0  0  0  0  0  0  0  0
   26.2678   26.8648   37.6698 H   0  0  0  0  0  0  0  0  0  0  0  0
   26.6075   32.2268   37.8150 H   0  0  0  0  0  0  0  0  0  0  0  0
   24.4817   31.2055   37.5871 H   0  0  0  0  0  0  0  0  0  0  0  0
   32.1014   33.4110   36.6753 H   0  0  0  0  0  0  0  0  0  0  0  0
   32.0541   32.8125   38.3331 H   0  0  0  0  0  0  0  0  0  0  0  0
   33.4792   32.5113   37.3284 H   0  0  0  0  0  0  0  0  0  0  0  0
   29.7777   30.8351   39.8645 H   0  0  0  0  0  0  0  0  0  0  0  0
   28.4426   31.1555   38.7965 H   0  0  0  0  0  0  0  0  0  0  0  0
  1  5  1  0
  1 12  1  0
  1 13  1  6
  1 14  2  0
  2 10  1  0
  2 12  1  0
  2 16  1  1
  2 18  2  0
  3 28  1  0
  3 29  1  0
  4 30  1  0
  4 31  1  0
  5 31  1  0
  5 65  1  0
  5 66  1  0
  6 24  1  0
  6 40  1  0
  7 25  1  0
  7 41  1  0
  8 26  1  0
  8 42  1  0
  9 27  1  0
  9 43  1  0
 10 32  1  0
 11 33  1  0
 11 44  1  0
 15 34  2  0
 17 36  2  0
 19 39  2  0
 20 29  1  0
 20 34  1  0
 20 35  1  0
 21 23  1  0
 21 36  1  0
 21 45  1  0
 22 34  1  0
 22 39  1  0
 22 46  1  0
 23 24  1  0
 23 31  1  0
 23 47  1  6
 24 26  1  0
 24 48  1  1
 25 27  1  0
 25 28  1  0
 25 49  1  1
 26 30  1  0
 26 50  1  6
 27 29  1  0
 27 51  1  1
 28 32  1  0
 28 52  1  1
 29 53  1  6
 30 33  1  0
 30 54  1  1
 31 55  1  1
 32 56  1  0
 32 57  1  0
 33 58  1  0
 33 59  1  0
 35 37  2  0
 35 60  1  0
 36 38  1  0
 37 39  1  0
 37 61  1  0
 38 62  1  0
 38 63  1  0
 38 64  1  0
M  CHG  2  13  -1  16  -1
M  END
>  <s_m_entry_id>  (1) 
6

>  <s_m_entry_name>  (1) 
Conformer3D_CID_445675.1

>  <PUBCHEM_COMPOUND_CID>  (1) 
445675

>  <PUBCHEM_CONFORMER_RMSD>  (1) 
1.4

>  <PUBCHEM_CONFORMER_DIVERSEORDER>  (1) 
1
100
125
2
112
53
15
46
27
92
126
94
84
79
130
105
121
118
131
76
70
3
99
110
17
22
111
63
133
44
106
119
90
28
117
89
14
123
136
96
66
54
135
83
23
45
67
137
72
35
128
20
9
114
69
127
98
120
93
36
4
11
51
13
122
104
33
97
61
75
58
116
107
42
86
113
37
91
10
47
32
25
19
43
39
74
78
40
73
85
115
80
31
65
103
64
52
132
134
24
68
138
38
108
87
55
7
41
18
29
21
60
48
59
57
49
124
16
50
12
62
71
88
101
109
102
82
77
30
56
129
34
8
95
81
26
5
6

>  <PUBCHEM_MMFF94_PARTIAL_CHARGES>  (1) 
50
1 1.51
10 -0.55
11 -0.68
12 -0.54
13 -0.77
14 -0.7
15 -0.57
16 -0.77
17 -0.57
18 -0.7
19 -0.57
2 1.51
20 -0.47
21 -0.73
22 -0.49
23 0.3
24 0.28
25 0.28
26 0.28
27 0.28
28 0.28
29 0.58
3 -0.56
30 0.28
31 0.56
32 0.28
33 0.28
34 0.69
35 -0.04
36 0.57
37 -0.14
38 0.06
39 0.62
4 -0.56
5 -0.55
53 0.37
54 0.4
55 0.4
56 0.4
57 0.4
58 0.15
59 0.4
6 -0.68
60 0.37
61 0.15
65 0.5
66 0.5
7 -0.68
8 -0.68
9 -0.68

>  <PUBCHEM_EFFECTIVE_ROTOR_COUNT>  (1) 
13.2

>  <PUBCHEM_PHARMACOPHORE_FEATURES>  (1) 
24
1 11 acceptor
1 11 donor
1 13 acceptor
1 14 acceptor
1 15 acceptor
1 16 acceptor
1 17 acceptor
1 18 acceptor
1 19 acceptor
1 21 donor
1 22 donor
1 3 acceptor
1 4 acceptor
1 6 acceptor
1 6 donor
1 7 acceptor
1 7 donor
1 8 acceptor
1 8 donor
1 9 acceptor
1 9 donor
5 3 25 27 28 29 rings
6 20 22 34 35 37 39 rings
6 4 23 24 26 30 31 rings

>  <PUBCHEM_HEAVY_ATOM_COUNT>  (1) 
39

>  <PUBCHEM_ATOM_DEF_STEREO_COUNT>  (1) 
9

>  <PUBCHEM_ATOM_UDEF_STEREO_COUNT>  (1) 
0

>  <PUBCHEM_BOND_DEF_STEREO_COUNT>  (1) 
0

>  <PUBCHEM_BOND_UDEF_STEREO_COUNT>  (1) 
0

>  <PUBCHEM_ISOTOPIC_ATOM_COUNT>  (1) 
0

>  <PUBCHEM_COMPONENT_COUNT>  (1) 
1

>  <PUBCHEM_CACTVS_TAUTO_COUNT>  (1) 
6

>  <PUBCHEM_CONFORMER_ID>  (1) 
0006CCEB00000001

>  <PUBCHEM_MMFF94_ENERGY>  (1) 
51.9884

>  <PUBCHEM_FEATURE_SELFOVERLAP>  (1) 
121.878

>  <PUBCHEM_SHAPE_FINGERPRINT>  (1) 
10032420 55 16910331274415417161
11285246 1 17045990716047785694
12156800 1 17031565406420439963
14251757 17 18191291698423983940
15210252 30 14437525698078550589
15219462 58 17632577162825059352
17974551 9 17344645729287208898
20764821 26 18186803590817321676
21987440 362 16307908420287456508
3380486 145 18260559947648472568
3493558 16 18343587360806564927
46939830 39 14089303454964773125
57527452 28 17403187387424775180

>  <PUBCHEM_SHAPE_MULTIPOLES>  (1) 
695.58
8.15
5.69
3.5
2.96
2.36
-0.93
2.99
1.1
0.3
1.98
-2.63
-3.07
1.85

>  <PUBCHEM_SHAPE_SELFOVERLAP>  (1) 
1416.354

>  <PUBCHEM_SHAPE_VOLUME>  (1) 
403.9

>  <PUBCHEM_COORDINATE_TYPE>  (1) 
2
5
10

>  <s_m_Source_Path>  (1) 
/home/tsenapathi/Desktop/SHAPE_ESP/OGT

>  <s_m_Source_File>  (1) 
Conformer3D_CID_445675.sdf

>  <i_m_Source_File_Index>  (1) 
1

>  <b_ppw_prepared>  (1) 
1

>  <s_ppw_prepared_with_version>  (1) 
2022-1

>  <b_ppw_created_disulfur>  (1) 
1

>  <r_ppw_preprocess_pH>  (1) 
7.4

>  <s_ppw_het_states>  (1) 
eJztk0Fug0AMRa+CWBM0/oZh6FWi3CDqrqsod68N/s5030UqNQv8HYaHv40fo4wfw9V+Mg3lNg1XRNSIS8Q1Yo24RWwR94hSKEgUIsWYFzkUqUKs1LxHshAtZINsZLVkg/WCaBANlgySQTJIVpKVZM1GkKwkK8lKspKsJOtBduWdtQdObxbRae200RED8B4KNTpdO93ivDHcj1DvoY2npdMSeu208bxfEgMF63Q232U8b5xwuJoGjKLpwLG04CP03oDT826AE8wKPdGlT/h+ny+0SzSdo38GJ1r4BaQZT9Kl/5t23GP6ORI2z49kx/zIq9DW2fYjadsr9uGDn4PmKDbWZlmZS6l29DEum+1bmbU1uz8uzTKZ21qf0/D5db+f1+OzefeNvOTY/lfyj65kTvD3VxLvvpKY61abryRwrOSi/uS5oDqXdf+5krfnNyD/fTk=

>  <r_i_Potential_Energy-S-OPLS>  (1) 
10.2204810582878

>  <r_i_RMS_Derivative-S-OPLS>  (1) 
0.0499650339268562

>  <r_i_Max_Derivative-S-OPLS>  (1) 
0.160525924405144

>  <r_i_Stretch_Energy-S-OPLS>  (1) 
4.94855934241291

>  <r_i_Bend_Energy-S-OPLS>  (1) 
15.149374235803

>  <r_i_LJ-14_Energy-S-OPLS>  (1) 
27.3696006043843

>  <r_i_El-14_Energy-S-OPLS>  (1) 
-20.6361827874184

>  <r_i_Van_der_Waals_Energy-S-OPLS>  (1) 
-19.3819876026567

>  <r_i_Electrostatic_Energy-S-OPLS>  (1) 
4.29281351686327

>  <r_i_Dihedral_Energy-S-OPLS>  (1) 
-1.72924728370507

>  <r_i_target_temperature>  (1) 
298

>  <s_m_job_name>  (1) 
proteinprep_6

$$$$
