BADGP
                    3D
 Schrodinger Suite 2022-1.
 40 41  0  0  1  0            999 V2000
   -2.8352   -1.8282    0.8204 O   0  0  0  0  0  0
   -2.1425    0.2877    0.2287 O   0  0  0  0  0  0
    0.7231   -1.6319    2.8244 O   0  0  0  0  0  0
    0.5318   -3.2530    0.6946 O   0  0  0  0  0  0
   -3.2676   -3.5352   -1.3500 O   0  0  0  0  0  0
   -0.1275    0.2140    4.7521 O   0  0  0  0  0  0
   -1.0986    0.7465    2.8052 N   0  0  0  0  0  0
   -1.4592   -0.6047    2.3813 C   0  0  2  0  0  0
   -0.2276   -1.3403    1.8088 C   0  0  2  0  0  0
   -0.6455   -2.6949    1.2295 C   0  0  1  0  0  0
   -1.7493   -2.4970    0.1744 C   0  0  1  0  0  0
   -2.5617   -0.5377    1.2808 C   0  0  2  0  0  0
   -2.3182   -3.8245   -0.3435 C   0  0  0  0  0  0
   -0.4900    1.0666    3.9478 C   0  0  0  0  0  0
   -0.2371    2.5426    4.2136 C   0  0  0  0  0  0
    0.5744   -1.0245    3.5505 H   0  0  0  0  0  0
    1.1965   -3.0490    1.3469 H   0  0  0  0  0  0
   -3.8203   -2.8439   -1.0123 H   0  0  0  0  0  0
   -1.3184    1.4871    2.1529 H   0  0  0  0  0  0
   -1.8747   -1.1649    3.2218 H   0  0  0  0  0  0
    0.2417   -0.7263    1.0368 H   0  0  0  0  0  0
   -1.0120   -3.3453    2.0261 H   0  0  0  0  0  0
   -1.3699   -1.9092   -0.6642 H   0  0  0  0  0  0
   -3.5164   -0.2208    1.6954 H   0  0  0  0  0  0
   -1.5258   -4.4442   -0.7665 H   0  0  0  0  0  0
   -2.7844   -4.3935    0.4618 H   0  0  0  0  0  0
    0.5909    2.6626    4.9130 H   0  0  0  0  0  0
    0.0169    3.0727    3.2953 H   0  0  0  0  0  0
   -1.1225    3.0034    4.6514 H   0  0  0  0  0  0
   -2.9576    4.4169   -0.0220 C   0  0  0  0  0  0
   -2.1706    3.7554   -0.9817 C   0  0  0  0  0  0
   -1.9315    2.3733   -0.8633 C   0  0  0  0  0  0
   -2.4680    1.6312    0.2082 C   0  0  0  0  0  0
   -3.2658    2.3081    1.1690 C   0  0  0  0  0  0
   -3.5051    3.6912    1.0513 C   0  0  0  0  0  0
   -3.1439    5.4779   -0.1123 H   0  0  0  0  0  0
   -1.7506    4.3065   -1.8110 H   0  0  0  0  0  0
   -1.3252    1.8737   -1.6056 H   0  0  0  0  0  0
   -3.7094    1.8100    2.0164 H   0  0  0  0  0  0
   -4.1141    4.1985    1.7862 H   0  0  0  0  0  0
  1 11  1  0  0  0
  1 12  1  0  0  0
  2 12  1  0  0  0
  2 33  1  0  0  0
  3  9  1  0  0  0
  3 16  1  0  0  0
  4 10  1  0  0  0
  4 17  1  0  0  0
  5 13  1  0  0  0
  5 18  1  0  0  0
  6 14  2  0  0  0
  7  8  1  0  0  0
  7 14  1  0  0  0
  7 19  1  0  0  0
  8  9  1  0  0  0
  8 12  1  0  0  0
  8 20  1  0  0  0
  9 10  1  0  0  0
  9 21  1  0  0  0
 10 11  1  0  0  0
 10 22  1  0  0  0
 11 13  1  0  0  0
 11 23  1  0  0  0
 12 24  1  0  0  0
 13 25  1  0  0  0
 13 26  1  0  0  0
 14 15  1  0  0  0
 15 27  1  0  0  0
 15 28  1  0  0  0
 15 29  1  0  0  0
 30 31  2  0  0  0
 30 35  1  0  0  0
 30 36  1  0  0  0
 31 32  1  0  0  0
 31 37  1  0  0  0
 32 33  2  0  0  0
 32 38  1  0  0  0
 33 34  1  0  0  0
 34 35  2  0  0  0
 34 39  1  0  0  0
 35 40  1  0  0  0
M  END
> <s_m_entry_id>
11

> <s_m_entry_name>
Conformer3D_CID_445675.1

> <PUBCHEM_COMPOUND_CID>
445675

> <PUBCHEM_CONFORMER_RMSD>
1.4

> <PUBCHEM_CONFORMER_DIVERSEORDER>
1
100
125
2
112
53
15
46
27
92
126
94
84
79
130
105
121
118
131
76
70
3
99
110
17
22
111
63
133
44
106
119
90
28
117
89
14
123
136
96
66
54
135
83
23
45
67
137
72
35
128
20
9
114
69
127
98
120
93
36
4
11
51
13
122
104
33
97
61
75
58
116
107
42
86
113
37
91
10
47
32
25
19
43
39
74
78
40
73
85
115
80
31
65
103
64
52
132
134
24
68
138
38
108
87
55
7
41
18
29
21
60
48
59
57
49
124
16
50
12
62
71
88
101
109
102
82
77
30
56
129
34
8
95
81
26
5
6

> <PUBCHEM_MMFF94_PARTIAL_CHARGES>
50
1 1.51
10 -0.55
11 -0.68
12 -0.54
13 -0.77
14 -0.7
15 -0.57
16 -0.77
17 -0.57
18 -0.7
19 -0.57
2 1.51
20 -0.47
21 -0.73
22 -0.49
23 0.3
24 0.28
25 0.28
26 0.28
27 0.28
28 0.28
29 0.58
3 -0.56
30 0.28
31 0.56
32 0.28
33 0.28
34 0.69
35 -0.04
36 0.57
37 -0.14
38 0.06
39 0.62
4 -0.56
5 -0.55
53 0.37
54 0.4
55 0.4
56 0.4
57 0.4
58 0.15
59 0.4
6 -0.68
60 0.37
61 0.15
65 0.5
66 0.5
7 -0.68
8 -0.68
9 -0.68

> <PUBCHEM_EFFECTIVE_ROTOR_COUNT>
13.2

> <PUBCHEM_PHARMACOPHORE_FEATURES>
24
1 11 acceptor
1 11 donor
1 13 acceptor
1 14 acceptor
1 15 acceptor
1 16 acceptor
1 17 acceptor
1 18 acceptor
1 19 acceptor
1 21 donor
1 22 donor
1 3 acceptor
1 4 acceptor
1 6 acceptor
1 6 donor
1 7 acceptor
1 7 donor
1 8 acceptor
1 8 donor
1 9 acceptor
1 9 donor
5 3 25 27 28 29 rings
6 20 22 34 35 37 39 rings
6 4 23 24 26 30 31 rings

> <PUBCHEM_HEAVY_ATOM_COUNT>
39

> <PUBCHEM_ATOM_DEF_STEREO_COUNT>
9

> <PUBCHEM_ATOM_UDEF_STEREO_COUNT>
0

> <PUBCHEM_BOND_DEF_STEREO_COUNT>
0

> <PUBCHEM_BOND_UDEF_STEREO_COUNT>
0

> <PUBCHEM_ISOTOPIC_ATOM_COUNT>
0

> <PUBCHEM_COMPONENT_COUNT>
1

> <PUBCHEM_CACTVS_TAUTO_COUNT>
6

> <PUBCHEM_CONFORMER_ID>
0006CCEB00000001

> <PUBCHEM_MMFF94_ENERGY>
51.9884

> <PUBCHEM_FEATURE_SELFOVERLAP>
121.878

> <PUBCHEM_SHAPE_FINGERPRINT>
10032420 55 16910331274415417161
11285246 1 17045990716047785694
12156800 1 17031565406420439963
14251757 17 18191291698423983940
15210252 30 14437525698078550589
15219462 58 17632577162825059352
17974551 9 17344645729287208898
20764821 26 18186803590817321676
21987440 362 16307908420287456508
3380486 145 18260559947648472568
3493558 16 18343587360806564927
46939830 39 14089303454964773125
57527452 28 17403187387424775180

> <PUBCHEM_SHAPE_MULTIPOLES>
695.58
8.15
5.69
3.5
2.96
2.36
-0.93
2.99
1.1
0.3
1.98
-2.63
-3.07
1.85

> <PUBCHEM_SHAPE_SELFOVERLAP>
1416.354

> <PUBCHEM_SHAPE_VOLUME>
403.9

> <PUBCHEM_COORDINATE_TYPE>
2
5
10

> <s_m_Source_Path>
/home/tsenapathi/Desktop/SHAPE_ESP/OGT

> <s_m_Source_File>
Conformer3D_CID_445675.sdf

> <i_m_Source_File_Index>
1

> <b_ppw_prepared>
1

> <s_ppw_prepared_with_version>
2022-1

> <b_ppw_created_disulfur>
1

> <r_ppw_preprocess_pH>
7.4

> <s_ppw_het_states>
eJztk0Fug0AMRa+CWBM0/oZh6FWi3CDqrqsod68N/s5030UqNQv8HYaHv40fo4wfw9V+Mg3lNg1XRNSIS8Q1Yo24RWwR94hSKEgUIsWYFzkUqUKs1LxHshAtZINsZLVkg/WCaBANlgySQTJIVpKVZM1GkKwkK8lKspKsJOtBduWdtQdObxbRae200RED8B4KNTpdO93ivDHcj1DvoY2npdMSeu208bxfEgMF63Q232U8b5xwuJoGjKLpwLG04CP03oDT826AE8wKPdGlT/h+ny+0SzSdo38GJ1r4BaQZT9Kl/5t23GP6ORI2z49kx/zIq9DW2fYjadsr9uGDn4PmKDbWZlmZS6l29DEum+1bmbU1uz8uzTKZ21qf0/D5db+f1+OzefeNvOTY/lfyj65kTvD3VxLvvpKY61abryRwrOSi/uS5oDqXdf+5krfnNyD/fTk=

> <r_i_Potential_Energy-S-OPLS>
10.2204810582878

> <r_i_RMS_Derivative-S-OPLS>
0.0499650339268562

> <r_i_Max_Derivative-S-OPLS>
0.160525924405144

> <r_i_Stretch_Energy-S-OPLS>
4.94855934241291

> <r_i_Bend_Energy-S-OPLS>
15.149374235803

> <r_i_LJ-14_Energy-S-OPLS>
27.3696006043843

> <r_i_El-14_Energy-S-OPLS>
-20.6361827874184

> <r_i_Van_der_Waals_Energy-S-OPLS>
-19.3819876026567

> <r_i_Electrostatic_Energy-S-OPLS>
4.29281351686327

> <r_i_Dihedral_Energy-S-OPLS>
-1.72924728370507

> <r_i_target_temperature>
298

> <s_m_job_name>
proteinprep_6

$$$$
UDP
                    3D
 Schrodinger Suite 2022-1.
 36 37  0  0  1  0            999 V2000
   -3.0005   -0.0047   -1.3731 P   0  0  0  0  0  0
   -1.3584    2.8301   -2.0276 P   0  0  0  0  0  0
    1.1543    1.4947    0.3359 O   0  0  0  0  0  0
   -2.5938   -0.3042    0.0653 O   0  5  0  0  0  0
    3.2439    3.4599    1.5126 O   0  0  0  0  0  0
    4.5569    1.3238    1.1292 O   0  0  0  0  0  0
    0.1950    2.1488   -2.1508 O   0  0  0  0  0  0
   -2.5247    1.5481   -1.8151 O   0  0  0  0  0  0
   -2.3609   -1.0181   -2.3181 O   0  5  0  0  0  0
   -4.5210   -0.0739   -1.5065 O   0  0  0  0  0  0
    4.2250   -1.3396    0.2305 O   0  0  0  0  0  0
   -1.5421    3.4987   -3.3502 O   0  5  0  0  0  0
   -1.3007    3.7571   -0.8600 O   0  0  0  0  0  0
    1.9513   -3.8853   -2.7320 O   0  0  0  0  0  0
    2.1531   -0.5322   -0.4245 N   0  0  0  0  0  0
    3.0516   -2.5739   -1.2635 N   0  0  0  0  0  0
    2.9807    2.9456    0.2154 C   0  0  1  0  0  0
    3.5015    1.5152    0.1848 C   0  0  2  0  0  0
    1.5019    2.7862   -0.1623 C   0  0  1  0  0  0
    2.2481    0.6634    0.4956 C   0  0  1  0  0  0
    1.3354    2.8295   -1.6994 C   0  0  0  0  0  0
    3.1995   -1.4670   -0.4421 C   0  0  0  0  0  0
    0.9843   -0.8070   -1.1387 C   0  0  0  0  0  0
    0.8459   -1.9007   -1.9262 C   0  0  0  0  0  0
    1.9319   -2.8662   -2.0387 C   0  0  0  0  0  0
    3.8598    2.8149    1.8519 H   0  0  0  0  0  0
    4.7169    0.3839    1.0917 H   0  0  0  0  0  0
    3.7963   -3.2421   -1.2944 H   0  0  0  0  0  0
    3.5072    3.5782   -0.4996 H   0  0  0  0  0  0
    3.8414    1.2859   -0.8265 H   0  0  0  0  0  0
    0.8822    3.5459    0.3127 H   0  0  0  0  0  0
    2.2139    0.2495    1.5038 H   0  0  0  0  0  0
    1.2775    3.8632   -2.0417 H   0  0  0  0  0  0
    2.1779    2.3668   -2.2080 H   0  0  0  0  0  0
    0.1238   -0.1500   -1.0767 H   0  0  0  0  0  0
   -0.0821   -2.0562   -2.4604 H   0  0  0  0  0  0
  1  4  1  0  0  0
  1  8  1  0  0  0
  1  9  1  0  0  0
  1 10  2  0  0  0
  2  7  1  0  0  0
  2  8  1  0  0  0
  2 12  1  0  0  0
  2 13  2  0  0  0
  3 19  1  0  0  0
  3 20  1  0  0  0
  5 17  1  0  0  0
  5 26  1  0  0  0
  6 18  1  0  0  0
  6 27  1  0  0  0
  7 21  1  0  0  0
 11 22  2  0  0  0
 14 25  2  0  0  0
 15 20  1  0  0  0
 15 22  1  0  0  0
 15 23  1  0  0  0
 16 22  1  0  0  0
 16 25  1  0  0  0
 16 28  1  0  0  0
 17 18  1  0  0  0
 17 19  1  0  0  0
 17 29  1  0  0  0
 18 20  1  0  0  0
 18 30  1  0  0  0
 19 21  1  0  0  0
 19 31  1  0  0  0
 20 32  1  0  0  0
 21 33  1  0  0  0
 21 34  1  0  0  0
 23 24  2  0  0  0
 23 35  1  0  0  0
 24 25  1  0  0  0
 24 36  1  0  0  0
M  CHG  3   4  -1   9  -1  12  -1
M  END
> <s_m_entry_id>
7

> <s_m_entry_name>
Conformer3D_CID_445675.1

> <PUBCHEM_COMPOUND_CID>
445675

> <PUBCHEM_CONFORMER_RMSD>
1.4

> <PUBCHEM_CONFORMER_DIVERSEORDER>
1
100
125
2
112
53
15
46
27
92
126
94
84
79
130
105
121
118
131
76
70
3
99
110
17
22
111
63
133
44
106
119
90
28
117
89
14
123
136
96
66
54
135
83
23
45
67
137
72
35
128
20
9
114
69
127
98
120
93
36
4
11
51
13
122
104
33
97
61
75
58
116
107
42
86
113
37
91
10
47
32
25
19
43
39
74
78
40
73
85
115
80
31
65
103
64
52
132
134
24
68
138
38
108
87
55
7
41
18
29
21
60
48
59
57
49
124
16
50
12
62
71
88
101
109
102
82
77
30
56
129
34
8
95
81
26
5
6

> <PUBCHEM_MMFF94_PARTIAL_CHARGES>
50
1 1.51
10 -0.55
11 -0.68
12 -0.54
13 -0.77
14 -0.7
15 -0.57
16 -0.77
17 -0.57
18 -0.7
19 -0.57
2 1.51
20 -0.47
21 -0.73
22 -0.49
23 0.3
24 0.28
25 0.28
26 0.28
27 0.28
28 0.28
29 0.58
3 -0.56
30 0.28
31 0.56
32 0.28
33 0.28
34 0.69
35 -0.04
36 0.57
37 -0.14
38 0.06
39 0.62
4 -0.56
5 -0.55
53 0.37
54 0.4
55 0.4
56 0.4
57 0.4
58 0.15
59 0.4
6 -0.68
60 0.37
61 0.15
65 0.5
66 0.5
7 -0.68
8 -0.68
9 -0.68

> <PUBCHEM_EFFECTIVE_ROTOR_COUNT>
13.2

> <PUBCHEM_PHARMACOPHORE_FEATURES>
24
1 11 acceptor
1 11 donor
1 13 acceptor
1 14 acceptor
1 15 acceptor
1 16 acceptor
1 17 acceptor
1 18 acceptor
1 19 acceptor
1 21 donor
1 22 donor
1 3 acceptor
1 4 acceptor
1 6 acceptor
1 6 donor
1 7 acceptor
1 7 donor
1 8 acceptor
1 8 donor
1 9 acceptor
1 9 donor
5 3 25 27 28 29 rings
6 20 22 34 35 37 39 rings
6 4 23 24 26 30 31 rings

> <PUBCHEM_HEAVY_ATOM_COUNT>
39

> <PUBCHEM_ATOM_DEF_STEREO_COUNT>
9

> <PUBCHEM_ATOM_UDEF_STEREO_COUNT>
0

> <PUBCHEM_BOND_DEF_STEREO_COUNT>
0

> <PUBCHEM_BOND_UDEF_STEREO_COUNT>
0

> <PUBCHEM_ISOTOPIC_ATOM_COUNT>
0

> <PUBCHEM_COMPONENT_COUNT>
1

> <PUBCHEM_CACTVS_TAUTO_COUNT>
6

> <PUBCHEM_CONFORMER_ID>
0006CCEB00000001

> <PUBCHEM_MMFF94_ENERGY>
51.9884

> <PUBCHEM_FEATURE_SELFOVERLAP>
121.878

> <PUBCHEM_SHAPE_FINGERPRINT>
10032420 55 16910331274415417161
11285246 1 17045990716047785694
12156800 1 17031565406420439963
14251757 17 18191291698423983940
15210252 30 14437525698078550589
15219462 58 17632577162825059352
17974551 9 17344645729287208898
20764821 26 18186803590817321676
21987440 362 16307908420287456508
3380486 145 18260559947648472568
3493558 16 18343587360806564927
46939830 39 14089303454964773125
57527452 28 17403187387424775180

> <PUBCHEM_SHAPE_MULTIPOLES>
695.58
8.15
5.69
3.5
2.96
2.36
-0.93
2.99
1.1
0.3
1.98
-2.63
-3.07
1.85

> <PUBCHEM_SHAPE_SELFOVERLAP>
1416.354

> <PUBCHEM_SHAPE_VOLUME>
403.9

> <PUBCHEM_COORDINATE_TYPE>
2
5
10

> <s_m_Source_Path>
/home/tsenapathi/Desktop/SHAPE_ESP/OGT

> <s_m_Source_File>
Conformer3D_CID_445675.sdf

> <i_m_Source_File_Index>
1

> <b_ppw_prepared>
1

> <s_ppw_prepared_with_version>
2022-1

> <b_ppw_created_disulfur>
1

> <r_ppw_preprocess_pH>
7.4

> <s_ppw_het_states>
eJztk0Fug0AMRa+CWBM0/oZh6FWi3CDqrqsod68N/s5030UqNQv8HYaHv40fo4wfw9V+Mg3lNg1XRNSIS8Q1Yo24RWwR94hSKEgUIsWYFzkUqUKs1LxHshAtZINsZLVkg/WCaBANlgySQTJIVpKVZM1GkKwkK8lKspKsJOtBduWdtQdObxbRae200RED8B4KNTpdO93ivDHcj1DvoY2npdMSeu208bxfEgMF63Q232U8b5xwuJoGjKLpwLG04CP03oDT826AE8wKPdGlT/h+ny+0SzSdo38GJ1r4BaQZT9Kl/5t23GP6ORI2z49kx/zIq9DW2fYjadsr9uGDn4PmKDbWZlmZS6l29DEum+1bmbU1uz8uzTKZ21qf0/D5db+f1+OzefeNvOTY/lfyj65kTvD3VxLvvpKY61abryRwrOSi/uS5oDqXdf+5krfnNyD/fTk=

> <r_i_Potential_Energy-S-OPLS>
10.2204810582878

> <r_i_RMS_Derivative-S-OPLS>
0.0499650339268562

> <r_i_Max_Derivative-S-OPLS>
0.160525924405144

> <r_i_Stretch_Energy-S-OPLS>
4.94855934241291

> <r_i_Bend_Energy-S-OPLS>
15.149374235803

> <r_i_LJ-14_Energy-S-OPLS>
27.3696006043843

> <r_i_El-14_Energy-S-OPLS>
-20.6361827874184

> <r_i_Van_der_Waals_Energy-S-OPLS>
-19.3819876026567

> <r_i_Electrostatic_Energy-S-OPLS>
4.29281351686327

> <r_i_Dihedral_Energy-S-OPLS>
-1.72924728370507

> <r_i_target_temperature>
298

> <s_m_job_name>
proteinprep_6

$$$$
C-UDP
                    3D
 Schrodinger Suite 2022-1.
 38 39  0  0  1  0            999 V2000
   -2.9810   -0.2732   -1.4792 P   0  0  0  0  0  0
   -1.3538    3.0547   -2.1518 P   0  0  0  0  0  0
    1.1340    1.4673    0.4119 O   0  0  0  0  0  0
   -2.2851   -0.7305   -0.1978 O   0  5  0  0  0  0
    3.1665    3.4969    1.4876 O   0  0  0  0  0  0
    4.5282    1.3765    1.1823 O   0  0  0  0  0  0
    0.0638    2.1254   -2.1162 O   0  0  0  0  0  0
   -2.7540    1.6968   -1.7622 C   0  0  0  0  0  0
   -2.4336   -1.0698   -2.6620 O   0  5  0  0  0  0
   -4.4793   -0.5585   -1.3468 O   0  0  0  0  0  0
    4.2514   -1.3091    0.1908 O   0  0  0  0  0  0
   -1.4146    3.6032   -3.5414 O   0  5  0  0  0  0
   -1.2032    4.0824   -1.0750 O   0  0  0  0  0  0
    1.9297   -3.8930   -2.7023 O   0  0  0  0  0  0
    2.1502   -0.5341   -0.4027 N   0  0  0  0  0  0
    3.0541   -2.5612   -1.2718 N   0  0  0  0  0  0
    2.9231    2.9389    0.2049 C   0  0  1  0  0  0
    3.4804    1.5213    0.2219 C   0  0  2  0  0  0
    1.4492    2.7316   -0.1694 C   0  0  1  0  0  0
    2.2432    0.6452    0.5368 C   0  0  1  0  0  0
    1.2915    2.6672   -1.7060 C   0  0  0  0  0  0
    3.2099   -1.4529   -0.4534 C   0  0  0  0  0  0
    0.9661   -0.8289   -1.0816 C   0  0  0  0  0  0
    0.8163   -1.9255   -1.8624 C   0  0  0  0  0  0
    1.9138   -2.8733   -2.0098 C   0  0  0  0  0  0
    3.7968    2.8789    1.8498 H   0  0  0  0  0  0
    4.7297    0.4452    1.1528 H   0  0  0  0  0  0
    3.8067   -3.2188   -1.3282 H   0  0  0  0  0  0
    3.4347    3.5631   -0.5282 H   0  0  0  0  0  0
    3.8445    1.2776   -0.7775 H   0  0  0  0  0  0
    0.8137    3.5078    0.2547 H   0  0  0  0  0  0
    2.2326    0.2080    1.5358 H   0  0  0  0  0  0
    1.3790    3.6673   -2.1321 H   0  0  0  0  0  0
    2.0636    2.0541   -2.1654 H   0  0  0  0  0  0
    0.1016   -0.1834   -0.9950 H   0  0  0  0  0  0
   -0.1296   -2.0938   -2.3620 H   0  0  0  0  0  0
   -3.2531    2.1355   -0.8880 H   0  0  0  0  0  0
   -3.4906    1.9191   -2.5459 H   0  0  0  0  0  0
  1  4  1  0  0  0
  1  8  1  0  0  0
  1  9  1  0  0  0
  1 10  2  0  0  0
  2  7  1  0  0  0
  2  8  1  0  0  0
  2 12  1  0  0  0
  2 13  2  0  0  0
  3 19  1  0  0  0
  3 20  1  0  0  0
  5 17  1  0  0  0
  5 26  1  0  0  0
  6 18  1  0  0  0
  6 27  1  0  0  0
  7 21  1  0  0  0
  8 37  1  0  0  0
  8 38  1  0  0  0
 11 22  2  0  0  0
 14 25  2  0  0  0
 15 20  1  0  0  0
 15 22  1  0  0  0
 15 23  1  0  0  0
 16 22  1  0  0  0
 16 25  1  0  0  0
 16 28  1  0  0  0
 17 18  1  0  0  0
 17 19  1  0  0  0
 17 29  1  0  0  0
 18 20  1  0  0  0
 18 30  1  0  0  0
 19 21  1  0  0  0
 19 31  1  0  0  0
 20 32  1  0  0  0
 21 33  1  0  0  0
 21 34  1  0  0  0
 23 24  2  0  0  0
 23 35  1  0  0  0
 24 25  1  0  0  0
 24 36  1  0  0  0
M  CHG  3   4  -1   9  -1  12  -1
M  END
> <s_m_entry_id>
9

> <s_m_entry_name>
Conformer3D_CID_445675.1

> <PUBCHEM_COMPOUND_CID>
445675

> <PUBCHEM_CONFORMER_RMSD>
1.4

> <PUBCHEM_CONFORMER_DIVERSEORDER>
1
100
125
2
112
53
15
46
27
92
126
94
84
79
130
105
121
118
131
76
70
3
99
110
17
22
111
63
133
44
106
119
90
28
117
89
14
123
136
96
66
54
135
83
23
45
67
137
72
35
128
20
9
114
69
127
98
120
93
36
4
11
51
13
122
104
33
97
61
75
58
116
107
42
86
113
37
91
10
47
32
25
19
43
39
74
78
40
73
85
115
80
31
65
103
64
52
132
134
24
68
138
38
108
87
55
7
41
18
29
21
60
48
59
57
49
124
16
50
12
62
71
88
101
109
102
82
77
30
56
129
34
8
95
81
26
5
6

> <PUBCHEM_MMFF94_PARTIAL_CHARGES>
50
1 1.51
10 -0.55
11 -0.68
12 -0.54
13 -0.77
14 -0.7
15 -0.57
16 -0.77
17 -0.57
18 -0.7
19 -0.57
2 1.51
20 -0.47
21 -0.73
22 -0.49
23 0.3
24 0.28
25 0.28
26 0.28
27 0.28
28 0.28
29 0.58
3 -0.56
30 0.28
31 0.56
32 0.28
33 0.28
34 0.69
35 -0.04
36 0.57
37 -0.14
38 0.06
39 0.62
4 -0.56
5 -0.55
53 0.37
54 0.4
55 0.4
56 0.4
57 0.4
58 0.15
59 0.4
6 -0.68
60 0.37
61 0.15
65 0.5
66 0.5
7 -0.68
8 -0.68
9 -0.68

> <PUBCHEM_EFFECTIVE_ROTOR_COUNT>
13.2

> <PUBCHEM_PHARMACOPHORE_FEATURES>
24
1 11 acceptor
1 11 donor
1 13 acceptor
1 14 acceptor
1 15 acceptor
1 16 acceptor
1 17 acceptor
1 18 acceptor
1 19 acceptor
1 21 donor
1 22 donor
1 3 acceptor
1 4 acceptor
1 6 acceptor
1 6 donor
1 7 acceptor
1 7 donor
1 8 acceptor
1 8 donor
1 9 acceptor
1 9 donor
5 3 25 27 28 29 rings
6 20 22 34 35 37 39 rings
6 4 23 24 26 30 31 rings

> <PUBCHEM_HEAVY_ATOM_COUNT>
39

> <PUBCHEM_ATOM_DEF_STEREO_COUNT>
9

> <PUBCHEM_ATOM_UDEF_STEREO_COUNT>
0

> <PUBCHEM_BOND_DEF_STEREO_COUNT>
0

> <PUBCHEM_BOND_UDEF_STEREO_COUNT>
0

> <PUBCHEM_ISOTOPIC_ATOM_COUNT>
0

> <PUBCHEM_COMPONENT_COUNT>
1

> <PUBCHEM_CACTVS_TAUTO_COUNT>
6

> <PUBCHEM_CONFORMER_ID>
0006CCEB00000001

> <PUBCHEM_MMFF94_ENERGY>
51.9884

> <PUBCHEM_FEATURE_SELFOVERLAP>
121.878

> <PUBCHEM_SHAPE_FINGERPRINT>
10032420 55 16910331274415417161
11285246 1 17045990716047785694
12156800 1 17031565406420439963
14251757 17 18191291698423983940
15210252 30 14437525698078550589
15219462 58 17632577162825059352
17974551 9 17344645729287208898
20764821 26 18186803590817321676
21987440 362 16307908420287456508
3380486 145 18260559947648472568
3493558 16 18343587360806564927
46939830 39 14089303454964773125
57527452 28 17403187387424775180

> <PUBCHEM_SHAPE_MULTIPOLES>
695.58
8.15
5.69
3.5
2.96
2.36
-0.93
2.99
1.1
0.3
1.98
-2.63
-3.07
1.85

> <PUBCHEM_SHAPE_SELFOVERLAP>
1416.354

> <PUBCHEM_SHAPE_VOLUME>
403.9

> <PUBCHEM_COORDINATE_TYPE>
2
5
10

> <s_m_Source_Path>
/home/tsenapathi/Desktop/SHAPE_ESP/OGT

> <s_m_Source_File>
Conformer3D_CID_445675.sdf

> <i_m_Source_File_Index>
1

> <b_ppw_prepared>
1

> <s_ppw_prepared_with_version>
2022-1

> <b_ppw_created_disulfur>
1

> <r_ppw_preprocess_pH>
7.4

> <s_ppw_het_states>
eJztk0Fug0AMRa+CWBM0/oZh6FWi3CDqrqsod68N/s5030UqNQv8HYaHv40fo4wfw9V+Mg3lNg1XRNSIS8Q1Yo24RWwR94hSKEgUIsWYFzkUqUKs1LxHshAtZINsZLVkg/WCaBANlgySQTJIVpKVZM1GkKwkK8lKspKsJOtBduWdtQdObxbRae200RED8B4KNTpdO93ivDHcj1DvoY2npdMSeu208bxfEgMF63Q232U8b5xwuJoGjKLpwLG04CP03oDT826AE8wKPdGlT/h+ny+0SzSdo38GJ1r4BaQZT9Kl/5t23GP6ORI2z49kx/zIq9DW2fYjadsr9uGDn4PmKDbWZlmZS6l29DEum+1bmbU1uz8uzTKZ21qf0/D5db+f1+OzefeNvOTY/lfyj65kTvD3VxLvvpKY61abryRwrOSi/uS5oDqXdf+5krfnNyD/fTk=

> <r_i_Potential_Energy-S-OPLS>
10.2204810582878

> <r_i_RMS_Derivative-S-OPLS>
0.0499650339268562

> <r_i_Max_Derivative-S-OPLS>
0.160525924405144

> <r_i_Stretch_Energy-S-OPLS>
4.94855934241291

> <r_i_Bend_Energy-S-OPLS>
15.149374235803

> <r_i_LJ-14_Energy-S-OPLS>
27.3696006043843

> <r_i_El-14_Energy-S-OPLS>
-20.6361827874184

> <r_i_Van_der_Waals_Energy-S-OPLS>
-19.3819876026567

> <r_i_Electrostatic_Energy-S-OPLS>
4.29281351686327

> <r_i_Dihedral_Energy-S-OPLS>
-1.72924728370507

> <r_i_target_temperature>
298

> <s_m_job_name>
proteinprep_6

$$$$
UDP-C-GlcNAc
                    3D
 Schrodinger Suite 2022-1.
 66 68  0  0  1  0            999 V2000
   -3.4205    0.2082   -1.4763 P   0  0  1  0  0  0
   -1.5791    2.7942   -2.1020 P   0  0  2  0  0  0
    1.0762    1.2458    0.3183 O   0  0  0  0  0  0
   -2.9014   -1.9639    0.7942 O   0  0  0  0  0  0
   -2.4842    0.3978    0.1207 C   0  0  0  0  0  0
    0.2168   -1.5840    3.3745 O   0  0  0  0  0  0
    2.9124    3.4253    1.4416 O   0  0  0  0  0  0
    0.3698   -3.3984    1.4452 O   0  0  0  0  0  0
    4.5012    1.4782    1.0674 O   0  0  0  0  0  0
   -0.1289    1.9172   -2.1084 O   0  0  0  0  0  0
   -2.3192   -3.5583   -1.7948 O   0  0  0  0  0  0
   -2.8635    1.6431   -2.2669 O   0  0  0  0  0  0
   -2.9148   -1.0290   -2.1421 O   0  5  0  0  0  0
   -4.8756    0.3012   -1.1809 O   0  0  0  0  0  0
    4.3019   -1.3533    0.5525 O   0  0  0  0  0  0
   -1.4972    3.6542   -3.3116 O   0  5  0  0  0  0
   -0.3197    0.8473    4.5394 O   0  0  0  0  0  0
   -1.6292    3.4809   -0.7841 O   0  0  0  0  0  0
    2.4518   -4.1519   -2.4949 O   0  0  0  0  0  0
    2.2988   -0.6742   -0.3774 N   0  0  0  0  0  0
   -1.3952    0.8889    2.5646 N   0  0  0  0  0  0
    3.3409   -2.7334   -0.9739 N   0  0  0  0  0  0
   -1.7902   -0.5132    2.4337 C   0  0  2  0  0  0
   -0.5280   -1.3757    2.1794 C   0  0  2  0  0  0
    2.7431    2.8791    0.1439 C   0  0  1  0  0  0
   -0.8769   -2.7540    1.6107 C   0  0  1  0  0  0
    3.4231    1.5180    0.1335 C   0  0  2  0  0  0
    1.2874    2.5555   -0.2157 C   0  0  1  0  0  0
    2.2717    0.5578    0.4969 C   0  0  1  0  0  0
   -1.6926   -2.5487    0.3260 C   0  0  1  0  0  0
   -2.7986   -0.6137    1.2448 C   0  0  2  0  0  0
    1.0892    2.5218   -1.7471 C   0  0  0  0  0  0
   -2.0691   -3.8322   -0.4269 C   0  0  0  0  0  0
    3.3652   -1.5725   -0.2156 C   0  0  0  0  0  0
    1.2634   -1.0007   -1.2500 C   0  0  0  0  0  0
   -0.7021    1.4649    3.5453 C   0  0  0  0  0  0
    1.2418   -2.1440   -1.9753 C   0  0  0  0  0  0
   -0.3567    2.9364    3.3728 C   0  0  0  0  0  0
    2.3376   -3.0994   -1.8679 C   0  0  0  0  0  0
    0.1273   -0.7716    3.8782 H   0  0  0  0  0  0
    3.6781    2.9545    1.7638 H   0  0  0  0  0  0
    0.8726   -3.0497    2.1752 H   0  0  0  0  0  0
    4.7557    0.5594    1.1064 H   0  0  0  0  0  0
   -2.6141   -2.6232   -1.8853 H   0  0  0  0  0  0
   -1.6156    1.4523    1.7475 H   0  0  0  0  0  0
    4.0912   -3.3895   -0.8562 H   0  0  0  0  0  0
   -2.2907   -0.8549    3.3408 H   0  0  0  0  0  0
    0.0996   -0.8580    1.4565 H   0  0  0  0  0  0
    3.1970    3.5645   -0.5728 H   0  0  0  0  0  0
   -1.4659   -3.3220    2.3323 H   0  0  0  0  0  0
    3.7733    1.2903   -0.8748 H   0  0  0  0  0  0
    0.6035    3.2658    0.2461 H   0  0  0  0  0  0
    2.3033    0.1910    1.5254 H   0  0  0  0  0  0
   -1.1565   -1.8891   -0.3524 H   0  0  0  0  0  0
   -3.7915   -0.3556    1.6148 H   0  0  0  0  0  0
    1.1063    3.5359   -2.1501 H   0  0  0  0  0  0
    1.8823    1.9660   -2.2432 H   0  0  0  0  0  0
   -1.2483   -4.5480   -0.3857 H   0  0  0  0  0  0
   -2.9377   -4.3075    0.0280 H   0  0  0  0  0  0
    0.4146   -0.3451   -1.3678 H   0  0  0  0  0  0
    0.4032   -2.3518   -2.6275 H   0  0  0  0  0  0
    0.7189    3.0529    3.2415 H   0  0  0  0  0  0
   -0.8486    3.3632    2.4962 H   0  0  0  0  0  0
   -0.6644    3.5031    4.2505 H   0  0  0  0  0  0
   -2.7114    1.4074    0.4610 H   0  0  0  0  0  0
   -1.4238    0.3930   -0.1212 H   0  0  0  0  0  0
  1  5  1  0  0  0
  1 12  1  0  0  0
  1 13  1  0  0  0
  1 14  2  0  0  0
  2 10  1  0  0  0
  2 12  1  0  0  0
  2 16  1  0  0  0
  2 18  2  0  0  0
  3 28  1  0  0  0
  3 29  1  0  0  0
  4 30  1  0  0  0
  4 31  1  0  0  0
  5 31  1  0  0  0
  5 65  1  0  0  0
  5 66  1  0  0  0
  6 24  1  0  0  0
  6 40  1  0  0  0
  7 25  1  0  0  0
  7 41  1  0  0  0
  8 26  1  0  0  0
  8 42  1  0  0  0
  9 27  1  0  0  0
  9 43  1  0  0  0
 10 32  1  0  0  0
 11 33  1  0  0  0
 11 44  1  0  0  0
 15 34  2  0  0  0
 17 36  2  0  0  0
 19 39  2  0  0  0
 20 29  1  0  0  0
 20 34  1  0  0  0
 20 35  1  0  0  0
 21 23  1  0  0  0
 21 36  1  0  0  0
 21 45  1  0  0  0
 22 34  1  0  0  0
 22 39  1  0  0  0
 22 46  1  0  0  0
 23 24  1  0  0  0
 23 31  1  0  0  0
 23 47  1  0  0  0
 24 26  1  0  0  0
 24 48  1  0  0  0
 25 27  1  0  0  0
 25 28  1  0  0  0
 25 49  1  0  0  0
 26 30  1  0  0  0
 26 50  1  0  0  0
 27 29  1  0  0  0
 27 51  1  0  0  0
 28 32  1  0  0  0
 28 52  1  0  0  0
 29 53  1  0  0  0
 30 33  1  0  0  0
 30 54  1  0  0  0
 31 55  1  0  0  0
 32 56  1  0  0  0
 32 57  1  0  0  0
 33 58  1  0  0  0
 33 59  1  0  0  0
 35 37  2  0  0  0
 35 60  1  0  0  0
 36 38  1  0  0  0
 37 39  1  0  0  0
 37 61  1  0  0  0
 38 62  1  0  0  0
 38 63  1  0  0  0
 38 64  1  0  0  0
M  CHG  2  13  -1  16  -1
M  END
> <s_m_entry_id>
6

> <s_m_entry_name>
Conformer3D_CID_445675.1

> <PUBCHEM_COMPOUND_CID>
445675

> <PUBCHEM_CONFORMER_RMSD>
1.4

> <PUBCHEM_CONFORMER_DIVERSEORDER>
1
100
125
2
112
53
15
46
27
92
126
94
84
79
130
105
121
118
131
76
70
3
99
110
17
22
111
63
133
44
106
119
90
28
117
89
14
123
136
96
66
54
135
83
23
45
67
137
72
35
128
20
9
114
69
127
98
120
93
36
4
11
51
13
122
104
33
97
61
75
58
116
107
42
86
113
37
91
10
47
32
25
19
43
39
74
78
40
73
85
115
80
31
65
103
64
52
132
134
24
68
138
38
108
87
55
7
41
18
29
21
60
48
59
57
49
124
16
50
12
62
71
88
101
109
102
82
77
30
56
129
34
8
95
81
26
5
6

> <PUBCHEM_MMFF94_PARTIAL_CHARGES>
50
1 1.51
10 -0.55
11 -0.68
12 -0.54
13 -0.77
14 -0.7
15 -0.57
16 -0.77
17 -0.57
18 -0.7
19 -0.57
2 1.51
20 -0.47
21 -0.73
22 -0.49
23 0.3
24 0.28
25 0.28
26 0.28
27 0.28
28 0.28
29 0.58
3 -0.56
30 0.28
31 0.56
32 0.28
33 0.28
34 0.69
35 -0.04
36 0.57
37 -0.14
38 0.06
39 0.62
4 -0.56
5 -0.55
53 0.37
54 0.4
55 0.4
56 0.4
57 0.4
58 0.15
59 0.4
6 -0.68
60 0.37
61 0.15
65 0.5
66 0.5
7 -0.68
8 -0.68
9 -0.68

> <PUBCHEM_EFFECTIVE_ROTOR_COUNT>
13.2

> <PUBCHEM_PHARMACOPHORE_FEATURES>
24
1 11 acceptor
1 11 donor
1 13 acceptor
1 14 acceptor
1 15 acceptor
1 16 acceptor
1 17 acceptor
1 18 acceptor
1 19 acceptor
1 21 donor
1 22 donor
1 3 acceptor
1 4 acceptor
1 6 acceptor
1 6 donor
1 7 acceptor
1 7 donor
1 8 acceptor
1 8 donor
1 9 acceptor
1 9 donor
5 3 25 27 28 29 rings
6 20 22 34 35 37 39 rings
6 4 23 24 26 30 31 rings

> <PUBCHEM_HEAVY_ATOM_COUNT>
39

> <PUBCHEM_ATOM_DEF_STEREO_COUNT>
9

> <PUBCHEM_ATOM_UDEF_STEREO_COUNT>
0

> <PUBCHEM_BOND_DEF_STEREO_COUNT>
0

> <PUBCHEM_BOND_UDEF_STEREO_COUNT>
0

> <PUBCHEM_ISOTOPIC_ATOM_COUNT>
0

> <PUBCHEM_COMPONENT_COUNT>
1

> <PUBCHEM_CACTVS_TAUTO_COUNT>
6

> <PUBCHEM_CONFORMER_ID>
0006CCEB00000001

> <PUBCHEM_MMFF94_ENERGY>
51.9884

> <PUBCHEM_FEATURE_SELFOVERLAP>
121.878

> <PUBCHEM_SHAPE_FINGERPRINT>
10032420 55 16910331274415417161
11285246 1 17045990716047785694
12156800 1 17031565406420439963
14251757 17 18191291698423983940
15210252 30 14437525698078550589
15219462 58 17632577162825059352
17974551 9 17344645729287208898
20764821 26 18186803590817321676
21987440 362 16307908420287456508
3380486 145 18260559947648472568
3493558 16 18343587360806564927
46939830 39 14089303454964773125
57527452 28 17403187387424775180

> <PUBCHEM_SHAPE_MULTIPOLES>
695.58
8.15
5.69
3.5
2.96
2.36
-0.93
2.99
1.1
0.3
1.98
-2.63
-3.07
1.85

> <PUBCHEM_SHAPE_SELFOVERLAP>
1416.354

> <PUBCHEM_SHAPE_VOLUME>
403.9

> <PUBCHEM_COORDINATE_TYPE>
2
5
10

> <s_m_Source_Path>
/home/tsenapathi/Desktop/SHAPE_ESP/OGT

> <s_m_Source_File>
Conformer3D_CID_445675.sdf

> <i_m_Source_File_Index>
1

> <b_ppw_prepared>
1

> <s_ppw_prepared_with_version>
2022-1

> <b_ppw_created_disulfur>
1

> <r_ppw_preprocess_pH>
7.4

> <s_ppw_het_states>
eJztk0Fug0AMRa+CWBM0/oZh6FWi3CDqrqsod68N/s5030UqNQv8HYaHv40fo4wfw9V+Mg3lNg1XRNSIS8Q1Yo24RWwR94hSKEgUIsWYFzkUqUKs1LxHshAtZINsZLVkg/WCaBANlgySQTJIVpKVZM1GkKwkK8lKspKsJOtBduWdtQdObxbRae200RED8B4KNTpdO93ivDHcj1DvoY2npdMSeu208bxfEgMF63Q232U8b5xwuJoGjKLpwLG04CP03oDT826AE8wKPdGlT/h+ny+0SzSdo38GJ1r4BaQZT9Kl/5t23GP6ORI2z49kx/zIq9DW2fYjadsr9uGDn4PmKDbWZlmZS6l29DEum+1bmbU1uz8uzTKZ21qf0/D5db+f1+OzefeNvOTY/lfyj65kTvD3VxLvvpKY61abryRwrOSi/uS5oDqXdf+5krfnNyD/fTk=

> <r_i_Potential_Energy-S-OPLS>
10.2204810582878

> <r_i_RMS_Derivative-S-OPLS>
0.0499650339268562

> <r_i_Max_Derivative-S-OPLS>
0.160525924405144

> <r_i_Stretch_Energy-S-OPLS>
4.94855934241291

> <r_i_Bend_Energy-S-OPLS>
15.149374235803

> <r_i_LJ-14_Energy-S-OPLS>
27.3696006043843

> <r_i_El-14_Energy-S-OPLS>
-20.6361827874184

> <r_i_Van_der_Waals_Energy-S-OPLS>
-19.3819876026567

> <r_i_Electrostatic_Energy-S-OPLS>
4.29281351686327

> <r_i_Dihedral_Energy-S-OPLS>
-1.72924728370507

> <r_i_target_temperature>
298

> <s_m_job_name>
proteinprep_6

$$$$
UDP-S-GlcNAc
                    3D
 Schrodinger Suite 2022-1.
 64 66  0  0  1  0            999 V2000
   -3.3668    0.3897   -1.2706 P   0  0  1  0  0  0
   -1.5292    2.6537   -2.5192 P   0  0  2  0  0  0
    1.0534    1.2439    0.2432 O   0  0  0  0  0  0
   -2.8111   -1.9217    1.1109 O   0  0  0  0  0  0
   -2.0548    0.6400    0.4116 S   0  0  0  0  0  0
    0.2936   -1.7578    3.7253 O   0  0  0  0  0  0
    2.8135    3.5088    1.2105 O   0  0  0  0  0  0
    0.4653   -3.4123    1.6521 O   0  0  0  0  0  0
    4.4612    1.5836    0.9804 O   0  0  0  0  0  0
   -0.1348    1.7159   -2.2914 O   0  0  0  0  0  0
   -2.2862   -3.4355   -1.5384 O   0  0  0  0  0  0
   -2.8687    1.5636   -2.4252 O   0  0  0  0  0  0
   -3.1430   -0.9748   -1.8407 O   0  5  0  0  0  0
   -4.7703    0.6893   -0.8686 O   0  0  0  0  0  0
    4.3297   -1.2813    0.5695 O   0  0  0  0  0  0
   -1.3950    3.1969   -3.8962 O   0  5  0  0  0  0
   -0.5318    0.3498    5.2976 O   0  0  0  0  0  0
   -1.5373    3.6323   -1.4016 O   0  0  0  0  0  0
    2.4767   -4.2801   -2.2802 O   0  0  0  0  0  0
    2.2916   -0.6977   -0.3490 N   0  0  0  0  0  0
   -1.3933    0.7230    3.2538 N   0  0  0  0  0  0
    3.3693   -2.7606   -0.8620 N   0  0  0  0  0  0
   -1.7273   -0.6475    2.8613 C   0  0  2  0  0  0
   -0.4434   -1.4551    2.5460 C   0  0  2  0  0  0
    2.6831    2.8805   -0.0551 C   0  0  1  0  0  0
   -0.7851   -2.7965    1.8797 C   0  0  1  0  0  0
    3.3928    1.5369    0.0358 C   0  0  2  0  0  0
    1.2435    2.4969   -0.4213 C   0  0  1  0  0  0
    2.2561    0.5799    0.4541 C   0  0  1  0  0  0
   -1.6216   -2.5257    0.6176 C   0  0  1  0  0  0
   -2.6479   -0.5965    1.6104 C   0  0  2  0  0  0
    1.0927    2.3120   -1.9492 C   0  0  0  0  0  0
   -2.0479   -3.7661   -0.1802 C   0  0  0  0  0  0
    3.3828   -1.5614   -0.1658 C   0  0  0  0  0  0
    1.2413   -1.0955   -1.1728 C   0  0  0  0  0  0
   -0.8427    1.1282    4.3976 C   0  0  0  0  0  0
    1.2309   -2.2760   -1.8362 C   0  0  0  0  0  0
   -0.5713    2.6183    4.5362 C   0  0  0  0  0  0
    2.3533   -3.1973   -1.7087 C   0  0  0  0  0  0
    0.1049   -1.0534    4.3485 H   0  0  0  0  0  0
    3.5929    3.0893    1.5676 H   0  0  0  0  0  0
    0.9736   -3.1311    2.4063 H   0  0  0  0  0  0
    4.7522    0.6789    1.0628 H   0  0  0  0  0  0
   -2.6777   -2.5326   -1.5992 H   0  0  0  0  0  0
   -1.5769    1.4197    2.5400 H   0  0  0  0  0  0
    4.1399   -3.3902   -0.7320 H   0  0  0  0  0  0
   -2.2763   -1.1377    3.6672 H   0  0  0  0  0  0
    0.1836   -0.8695    1.8722 H   0  0  0  0  0  0
    3.1354    3.5300   -0.8054 H   0  0  0  0  0  0
   -1.3584   -3.4220    2.5658 H   0  0  0  0  0  0
    3.7605    1.2482   -0.9505 H   0  0  0  0  0  0
    0.5296    3.2315   -0.0509 H   0  0  0  0  0  0
    2.2975    0.2684    1.4998 H   0  0  0  0  0  0
   -1.0759   -1.8624   -0.0483 H   0  0  0  0  0  0
   -3.6393   -0.2574    1.9123 H   0  0  0  0  0  0
    1.1553    3.2796   -2.4502 H   0  0  0  0  0  0
    1.8816    1.6877   -2.3633 H   0  0  0  0  0  0
   -1.2549   -4.5137   -0.1647 H   0  0  0  0  0  0
   -2.9348   -4.2237    0.2574 H   0  0  0  0  0  0
    0.3719   -0.4674   -1.3001 H   0  0  0  0  0  0
    0.3820   -2.5380   -2.4542 H   0  0  0  0  0  0
    0.2498    2.9133    3.8814 H   0  0  0  0  0  0
   -1.4542    3.1973    4.2645 H   0  0  0  0  0  0
   -0.3002    2.8659    5.5624 H   0  0  0  0  0  0
  1  5  1  0  0  0
  1 12  1  0  0  0
  1 13  1  0  0  0
  1 14  2  0  0  0
  2 10  1  0  0  0
  2 12  1  0  0  0
  2 16  1  0  0  0
  2 18  2  0  0  0
  3 28  1  0  0  0
  3 29  1  0  0  0
  4 30  1  0  0  0
  4 31  1  0  0  0
  5 31  1  0  0  0
  6 24  1  0  0  0
  6 40  1  0  0  0
  7 25  1  0  0  0
  7 41  1  0  0  0
  8 26  1  0  0  0
  8 42  1  0  0  0
  9 27  1  0  0  0
  9 43  1  0  0  0
 10 32  1  0  0  0
 11 33  1  0  0  0
 11 44  1  0  0  0
 15 34  2  0  0  0
 17 36  2  0  0  0
 19 39  2  0  0  0
 20 29  1  0  0  0
 20 34  1  0  0  0
 20 35  1  0  0  0
 21 23  1  0  0  0
 21 36  1  0  0  0
 21 45  1  0  0  0
 22 34  1  0  0  0
 22 39  1  0  0  0
 22 46  1  0  0  0
 23 24  1  0  0  0
 23 31  1  0  0  0
 23 47  1  0  0  0
 24 26  1  0  0  0
 24 48  1  0  0  0
 25 27  1  0  0  0
 25 28  1  0  0  0
 25 49  1  0  0  0
 26 30  1  0  0  0
 26 50  1  0  0  0
 27 29  1  0  0  0
 27 51  1  0  0  0
 28 32  1  0  0  0
 28 52  1  0  0  0
 29 53  1  0  0  0
 30 33  1  0  0  0
 30 54  1  0  0  0
 31 55  1  0  0  0
 32 56  1  0  0  0
 32 57  1  0  0  0
 33 58  1  0  0  0
 33 59  1  0  0  0
 35 37  2  0  0  0
 35 60  1  0  0  0
 36 38  1  0  0  0
 37 39  1  0  0  0
 37 61  1  0  0  0
 38 62  1  0  0  0
 38 63  1  0  0  0
 38 64  1  0  0  0
M  CHG  2  13  -1  16  -1
M  END
> <s_m_entry_id>
5

> <s_m_entry_name>
Conformer3D_CID_445675.1

> <PUBCHEM_COMPOUND_CID>
445675

> <PUBCHEM_CONFORMER_RMSD>
1.4

> <PUBCHEM_CONFORMER_DIVERSEORDER>
1
100
125
2
112
53
15
46
27
92
126
94
84
79
130
105
121
118
131
76
70
3
99
110
17
22
111
63
133
44
106
119
90
28
117
89
14
123
136
96
66
54
135
83
23
45
67
137
72
35
128
20
9
114
69
127
98
120
93
36
4
11
51
13
122
104
33
97
61
75
58
116
107
42
86
113
37
91
10
47
32
25
19
43
39
74
78
40
73
85
115
80
31
65
103
64
52
132
134
24
68
138
38
108
87
55
7
41
18
29
21
60
48
59
57
49
124
16
50
12
62
71
88
101
109
102
82
77
30
56
129
34
8
95
81
26
5
6

> <PUBCHEM_MMFF94_PARTIAL_CHARGES>
50
1 1.51
10 -0.55
11 -0.68
12 -0.54
13 -0.77
14 -0.7
15 -0.57
16 -0.77
17 -0.57
18 -0.7
19 -0.57
2 1.51
20 -0.47
21 -0.73
22 -0.49
23 0.3
24 0.28
25 0.28
26 0.28
27 0.28
28 0.28
29 0.58
3 -0.56
30 0.28
31 0.56
32 0.28
33 0.28
34 0.69
35 -0.04
36 0.57
37 -0.14
38 0.06
39 0.62
4 -0.56
5 -0.55
53 0.37
54 0.4
55 0.4
56 0.4
57 0.4
58 0.15
59 0.4
6 -0.68
60 0.37
61 0.15
65 0.5
66 0.5
7 -0.68
8 -0.68
9 -0.68

> <PUBCHEM_EFFECTIVE_ROTOR_COUNT>
13.2

> <PUBCHEM_PHARMACOPHORE_FEATURES>
24
1 11 acceptor
1 11 donor
1 13 acceptor
1 14 acceptor
1 15 acceptor
1 16 acceptor
1 17 acceptor
1 18 acceptor
1 19 acceptor
1 21 donor
1 22 donor
1 3 acceptor
1 4 acceptor
1 6 acceptor
1 6 donor
1 7 acceptor
1 7 donor
1 8 acceptor
1 8 donor
1 9 acceptor
1 9 donor
5 3 25 27 28 29 rings
6 20 22 34 35 37 39 rings
6 4 23 24 26 30 31 rings

> <PUBCHEM_HEAVY_ATOM_COUNT>
39

> <PUBCHEM_ATOM_DEF_STEREO_COUNT>
9

> <PUBCHEM_ATOM_UDEF_STEREO_COUNT>
0

> <PUBCHEM_BOND_DEF_STEREO_COUNT>
0

> <PUBCHEM_BOND_UDEF_STEREO_COUNT>
0

> <PUBCHEM_ISOTOPIC_ATOM_COUNT>
0

> <PUBCHEM_COMPONENT_COUNT>
1

> <PUBCHEM_CACTVS_TAUTO_COUNT>
6

> <PUBCHEM_CONFORMER_ID>
0006CCEB00000001

> <PUBCHEM_MMFF94_ENERGY>
51.9884

> <PUBCHEM_FEATURE_SELFOVERLAP>
121.878

> <PUBCHEM_SHAPE_FINGERPRINT>
10032420 55 16910331274415417161
11285246 1 17045990716047785694
12156800 1 17031565406420439963
14251757 17 18191291698423983940
15210252 30 14437525698078550589
15219462 58 17632577162825059352
17974551 9 17344645729287208898
20764821 26 18186803590817321676
21987440 362 16307908420287456508
3380486 145 18260559947648472568
3493558 16 18343587360806564927
46939830 39 14089303454964773125
57527452 28 17403187387424775180

> <PUBCHEM_SHAPE_MULTIPOLES>
695.58
8.15
5.69
3.5
2.96
2.36
-0.93
2.99
1.1
0.3
1.98
-2.63
-3.07
1.85

> <PUBCHEM_SHAPE_SELFOVERLAP>
1416.354

> <PUBCHEM_SHAPE_VOLUME>
403.9

> <PUBCHEM_COORDINATE_TYPE>
2
5
10

> <s_m_Source_Path>
/home/tsenapathi/Desktop/SHAPE_ESP/OGT

> <s_m_Source_File>
Conformer3D_CID_445675.sdf

> <i_m_Source_File_Index>
1

> <b_ppw_prepared>
1

> <s_ppw_prepared_with_version>
2022-1

> <b_ppw_created_disulfur>
1

> <r_ppw_preprocess_pH>
7.4

> <s_ppw_het_states>
eJztk0Fug0AMRa+CWBM0/oZh6FWi3CDqrqsod68N/s5030UqNQv8HYaHv40fo4wfw9V+Mg3lNg1XRNSIS8Q1Yo24RWwR94hSKEgUIsWYFzkUqUKs1LxHshAtZINsZLVkg/WCaBANlgySQTJIVpKVZM1GkKwkK8lKspKsJOtBduWdtQdObxbRae200RED8B4KNTpdO93ivDHcj1DvoY2npdMSeu208bxfEgMF63Q232U8b5xwuJoGjKLpwLG04CP03oDT826AE8wKPdGlT/h+ny+0SzSdo38GJ1r4BaQZT9Kl/5t23GP6ORI2z49kx/zIq9DW2fYjadsr9uGDn4PmKDbWZlmZS6l29DEum+1bmbU1uz8uzTKZ21qf0/D5db+f1+OzefeNvOTY/lfyj65kTvD3VxLvvpKY61abryRwrOSi/uS5oDqXdf+5krfnNyD/fTk=

> <r_i_Potential_Energy-S-OPLS>
10.2204810582878

> <r_i_RMS_Derivative-S-OPLS>
0.0499650339268562

> <r_i_Max_Derivative-S-OPLS>
0.160525924405144

> <r_i_Stretch_Energy-S-OPLS>
4.94855934241291

> <r_i_Bend_Energy-S-OPLS>
15.149374235803

> <r_i_LJ-14_Energy-S-OPLS>
27.3696006043843

> <r_i_El-14_Energy-S-OPLS>
-20.6361827874184

> <r_i_Van_der_Waals_Energy-S-OPLS>
-19.3819876026567

> <r_i_Electrostatic_Energy-S-OPLS>
4.29281351686327

> <r_i_Dihedral_Energy-S-OPLS>
-1.72924728370507

> <r_i_target_temperature>
298

> <s_m_job_name>
proteinprep_6

$$$$
